Circuit: * C:\Users\Dave\Documents\GitHub\myStateOfCharge\SOC_Photon\datasheets\lpf.asc

Per .tran options, skipping operating point for transient analysis.

Date: Thu Oct 07 18:47:01 2021
Total elapsed time: 0.161 seconds.

tnom = 27
temp = 27
method = modified trap
totiter = 22288
traniter = 22288
tranpoints = 11145
accept = 10895
rejected = 250
matrix size = 3
fillins = 0
solver = Normal
Matrix Compiler1:       3 opcodes  0.0/[0.0]/0.0
Matrix Compiler2: 175 bytes object code size  0.0/0.0/[0.0]

