Circuit: * C:\Users\Dave\Documents\GitHub\myStateOfCharge\SOC_Photon\datasheets\lpf_Vbatt.asc

Per .tran options, skipping operating point for transient analysis.

Date: Thu Oct 07 17:40:26 2021
Total elapsed time: 0.054 seconds.

tnom = 27
temp = 27
method = modified trap
totiter = 22278
traniter = 22278
tranpoints = 11140
accept = 10891
rejected = 249
matrix size = 4
fillins = 0
solver = Normal
Matrix Compiler1: 100 bytes object code size  0.1/0.0/[0.0]
Matrix Compiler2: 248 bytes object code size  0.0/0.0/[0.0]

